Version 4
SHEET 1 3692 1416
WIRE 1856 -640 1808 -640
WIRE 1952 -640 1936 -640
WIRE 1984 -640 1952 -640
WIRE 2048 -640 1984 -640
WIRE 2912 -640 2848 -640
WIRE 3024 -640 2992 -640
WIRE 3088 -640 3024 -640
WIRE 3152 -640 3088 -640
WIRE 1808 -608 1808 -640
WIRE 2848 -608 2848 -640
WIRE 3024 -608 3024 -640
WIRE 672 -592 640 -592
WIRE 1088 -592 672 -592
WIRE 1760 -592 1648 -592
WIRE 1952 -592 1952 -640
WIRE 2048 -592 2048 -640
WIRE 2080 -592 2048 -592
WIRE 2800 -592 2688 -592
WIRE 3152 -592 3152 -640
WIRE 3184 -592 3152 -592
WIRE 640 -560 640 -592
WIRE 1088 -560 1040 -560
WIRE 1648 -560 1648 -592
WIRE 2080 -560 2064 -560
WIRE 2688 -560 2688 -592
WIRE 3184 -560 3168 -560
WIRE 1344 -544 1264 -544
WIRE 1600 -544 1344 -544
WIRE 2304 -544 2256 -544
WIRE 2640 -544 2304 -544
WIRE 3408 -544 3360 -544
WIRE 3440 -544 3408 -544
WIRE 1088 -528 864 -528
WIRE 2016 -528 2000 -528
WIRE 2080 -528 2016 -528
WIRE 3120 -528 3104 -528
WIRE 3184 -528 3120 -528
WIRE 1808 -512 1808 -528
WIRE 2848 -512 2848 -528
WIRE 1600 -496 1584 -496
WIRE 2640 -496 2624 -496
WIRE 640 -448 640 -480
WIRE 1344 -432 1344 -544
WIRE 864 -416 864 -528
WIRE 864 -400 864 -416
WIRE 1584 -352 1584 -496
WIRE 1600 -352 1584 -352
WIRE 1680 -352 1600 -352
WIRE 2624 -352 2624 -496
WIRE 2624 -352 2560 -352
WIRE 2640 -352 2624 -352
WIRE 1344 -320 1344 -352
WIRE 2304 -320 2304 -544
WIRE 3440 -320 3440 -544
WIRE 640 -304 640 -336
WIRE 1744 -288 1728 -288
WIRE 2704 -288 2688 -288
WIRE 864 -256 864 -320
WIRE 640 -192 640 -224
WIRE 1312 -192 1296 -192
WIRE 2272 -192 2256 -192
WIRE 3408 -192 3392 -192
WIRE 1600 -176 1600 -192
WIRE 1680 -176 1680 -192
WIRE 2640 -176 2640 -192
WIRE 2560 -160 2560 -192
WIRE 640 -64 640 -96
WIRE 1648 -32 1648 -288
WIRE 1648 -32 1392 -32
WIRE 1680 -32 1648 -32
WIRE 1744 -32 1744 -288
WIRE 1744 -32 1728 -32
WIRE 2608 -32 2608 -288
WIRE 2608 -32 2352 -32
WIRE 2640 -32 2608 -32
WIRE 2704 -32 2704 -288
WIRE 2704 -32 2688 -32
WIRE 640 48 640 16
WIRE 848 64 800 64
WIRE 928 64 896 64
WIRE 1024 64 1008 64
WIRE 1056 64 1024 64
WIRE 1120 64 1104 64
WIRE 1136 64 1120 64
WIRE 1392 64 1392 -32
WIRE 2352 64 2352 -32
WIRE 1024 112 1024 64
WIRE 1776 288 1728 288
WIRE 1872 288 1856 288
WIRE 1904 288 1872 288
WIRE 1968 288 1904 288
WIRE 2832 288 2768 288
WIRE 2944 288 2912 288
WIRE 3008 288 2944 288
WIRE 3072 288 3008 288
WIRE 1728 320 1728 288
WIRE 2768 320 2768 288
WIRE 2944 320 2944 288
WIRE 816 336 592 336
WIRE 1008 336 816 336
WIRE 1680 336 1568 336
WIRE 1872 336 1872 288
WIRE 1968 336 1968 288
WIRE 2000 336 1968 336
WIRE 2720 336 2608 336
WIRE 3072 336 3072 288
WIRE 3104 336 3072 336
WIRE 1008 368 960 368
WIRE 1568 368 1568 336
WIRE 2000 368 1984 368
WIRE 2608 368 2608 336
WIRE 3104 368 3088 368
WIRE 1264 384 1184 384
WIRE 1520 384 1264 384
WIRE 2224 384 2176 384
WIRE 2560 384 2224 384
WIRE 3328 384 3280 384
WIRE 3360 384 3328 384
WIRE 848 400 784 400
WIRE 1008 400 848 400
WIRE 1936 400 1920 400
WIRE 2000 400 1936 400
WIRE 3040 400 3024 400
WIRE 3104 400 3040 400
WIRE 1728 416 1728 400
WIRE 2768 416 2768 400
WIRE 1520 432 1504 432
WIRE 2560 432 2544 432
WIRE 1504 576 1504 432
WIRE 1520 576 1504 576
WIRE 1600 576 1520 576
WIRE 2544 576 2544 432
WIRE 2544 576 2480 576
WIRE 2560 576 2544 576
WIRE 1264 608 1264 384
WIRE 2224 608 2224 384
WIRE 3360 608 3360 384
WIRE 1664 640 1648 640
WIRE 2624 640 2608 640
WIRE 1232 736 1216 736
WIRE 2192 736 2176 736
WIRE 3328 736 3312 736
WIRE 1520 752 1520 736
WIRE 1600 752 1600 736
WIRE 2560 752 2560 736
WIRE 2480 768 2480 736
WIRE 1568 896 1568 640
WIRE 1568 896 1312 896
WIRE 1600 896 1568 896
WIRE 1664 896 1664 640
WIRE 1664 896 1648 896
WIRE 2528 896 2528 640
WIRE 2528 896 2272 896
WIRE 2560 896 2528 896
WIRE 2624 896 2624 640
WIRE 2624 896 2608 896
WIRE 1312 992 1312 896
WIRE 2272 992 2272 896
FLAG 640 -448 0
FLAG 672 -592 Vin
FLAG 1648 -480 0
FLAG 1808 -512 0
FLAG 1760 -544 0
FLAG 864 48 VDD
FLAG 800 64 clk
FLAG 864 -256 0
FLAG 864 -416 clk
FLAG 640 -192 0
FLAG 640 -336 VDD
FLAG 1040 -560 0
FLAG 640 48 0
FLAG 640 -96 VCM
FLAG 1440 -320 VCM
FLAG 1296 -192 clkd
FLAG 1472 -192 VDD
FLAG 1680 -176 0
FLAG 1600 -176 VCM
FLAG 1616 -240 VDD
FLAG 1696 -240 VDD
FLAG 1696 -48 VDD
FLAG 2688 -480 0
FLAG 2848 -512 0
FLAG 2800 -544 0
FLAG 2064 -560 0
FLAG 2400 -320 VCM
FLAG 2256 -192 clkd
FLAG 2432 -192 VDD
FLAG 2640 -176 0
FLAG 2560 -160 VCM
FLAG 2576 -240 VDD
FLAG 2656 -240 VDD
FLAG 2656 -48 VDD
FLAG 2016 -528 clk
FLAG 3168 -560 0
FLAG 3536 -320 VCM
FLAG 3392 -192 clkd
FLAG 3568 -192 VDD
FLAG 3120 -528 clk
FLAG 1072 48 VDD
FLAG 1120 64 clkd
FLAG 1024 176 0
FLAG 1952 -528 0
FLAG 3024 -544 0
FLAG 1984 -640 in2
FLAG 3088 -640 in3
FLAG 1392 64 D2
FLAG 2352 64 D1
FLAG 3488 -32 D0
FLAG 1344 -544 vin2
FLAG 2304 -544 vin1
FLAG 3408 -544 vin0
FLAG 1568 448 0
FLAG 1728 416 0
FLAG 1680 384 0
FLAG 960 368 0
FLAG 1360 608 VCM
FLAG 1216 736 clkd
FLAG 1392 736 VDD
FLAG 1600 752 0
FLAG 1520 752 VCM
FLAG 1536 688 VDD
FLAG 1616 688 VDD
FLAG 1616 880 VDD
FLAG 2608 448 0
FLAG 2768 416 0
FLAG 2720 384 0
FLAG 1984 368 0
FLAG 2320 608 VCM
FLAG 2176 736 clkd
FLAG 2352 736 VDD
FLAG 2560 752 0
FLAG 2480 768 VCM
FLAG 2496 688 VDD
FLAG 2576 688 VDD
FLAG 2576 880 VDD
FLAG 1936 400 clk
FLAG 3088 368 0
FLAG 3456 608 VCM
FLAG 3312 736 clkd
FLAG 3488 736 VDD
FLAG 3040 400 clk
FLAG 1872 400 0
FLAG 2944 384 0
FLAG 1904 288 in2_ideal
FLAG 3008 288 in3_ideal
FLAG 1312 992 D2_ideal
FLAG 2272 992 D1_ideal
FLAG 3408 896 D0_ideal
FLAG 1264 384 vin2_ideal
FLAG 2224 384 vin1_ideal
FLAG 3328 384 vin0_ideal
FLAG 848 400 clk
FLAG 816 336 Vin
SYMBOL voltage 640 -576 R0
WINDOW 0 36 42 Left 0
WINDOW 3 -61 348 VLeft 0
WINDOW 123 0 0 Left 0
WINDOW 39 0 0 Left 0
SYMATTR InstName Vin1
SYMATTR Value PULSE(0 5V 0.75n 100n 100n 100n 100n)
SYMBOL e 1648 -576 R0
WINDOW 0 42 40 Left 0
WINDOW 3 45 74 Left 0
SYMATTR InstName E1
SYMATTR Value 1
SYMBOL e 1808 -624 R0
WINDOW 0 38 39 Left 0
WINDOW 3 42 76 Left 0
SYMATTR InstName E2
SYMATTR Value 2
SYMBOL inverter 848 64 R0
SYMATTR InstName X6
SYMBOL voltage 864 -416 R0
WINDOW 0 36 42 Left 0
WINDOW 3 -85 257 VLeft 0
WINDOW 123 0 0 Left 0
WINDOW 39 0 0 Left 0
SYMATTR InstName Vclk
SYMATTR Value PULSE(0 5 0.5n 100p 100p 0.5n 1n)
SYMBOL voltage 640 -320 R0
WINDOW 0 36 42 Left 0
WINDOW 3 44 15 Left 0
WINDOW 123 0 0 Left 0
WINDOW 39 0 0 Left 0
SYMATTR InstName VDD
SYMATTR Value 5
SYMBOL SpecialFunctions\\sample 1168 -560 R0
WINDOW 3 -28 112 Left 0
SYMATTR Value REF=2.5
SYMATTR InstName A1
SYMBOL voltage 640 -80 R0
WINDOW 0 36 42 Left 0
WINDOW 3 44 15 Left 0
WINDOW 123 0 0 Left 0
WINDOW 39 0 0 Left 0
SYMATTR InstName VCM
SYMATTR Value 2.5
SYMBOL Ideal_clocked_comparator 1392 -272 R90
SYMATTR InstName X1
SYMBOL switch_1 1664 -352 R90
SYMATTR InstName X2
SYMBOL switch_1 1584 -352 R90
SYMATTR InstName X3
SYMBOL inverter 1680 -32 R0
SYMATTR InstName X4
SYMBOL e 2688 -576 R0
WINDOW 0 42 40 Left 0
WINDOW 3 45 74 Left 0
SYMATTR InstName E3
SYMATTR Value 1
SYMBOL e 2848 -624 R0
WINDOW 0 38 39 Left 0
WINDOW 3 42 76 Left 0
SYMATTR InstName E4
SYMATTR Value 2
SYMBOL SpecialFunctions\\sample 2160 -560 R0
WINDOW 3 -28 112 Left 0
SYMATTR Value REF=2.5
SYMATTR InstName A2
SYMBOL Ideal_clocked_comparator 2352 -272 R90
SYMATTR InstName X7
SYMBOL switch_1 2624 -352 R90
SYMATTR InstName X8
SYMBOL switch_1 2544 -352 R90
SYMATTR InstName X9
SYMBOL inverter 2640 -32 R0
SYMATTR InstName X10
SYMBOL SpecialFunctions\\sample 3264 -560 R0
WINDOW 3 -28 112 Left 0
SYMATTR Value REF=2.5
SYMATTR InstName A3
SYMBOL Ideal_clocked_comparator 3488 -272 R90
SYMATTR InstName X13
SYMBOL inverter 1056 64 R0
SYMATTR InstName X18
SYMBOL res 1024 48 R90
WINDOW 0 0 56 VBottom 0
WINDOW 3 32 56 VTop 0
SYMATTR InstName R1
SYMATTR Value 500
SYMBOL cap 1008 112 R0
WINDOW 3 41 37 Left 0
SYMATTR Value 1p
SYMATTR InstName C1
SYMBOL res 1952 -656 R90
WINDOW 0 0 56 VBottom 0
WINDOW 3 32 56 VTop 0
SYMATTR InstName R2
SYMATTR Value 100
SYMBOL cap 1936 -592 R0
WINDOW 3 41 37 Left 0
SYMATTR Value 1p
SYMATTR InstName C2
SYMBOL res 3008 -656 R90
WINDOW 0 0 56 VBottom 0
WINDOW 3 32 56 VTop 0
SYMATTR InstName R3
SYMATTR Value 100
SYMBOL cap 3008 -608 R0
WINDOW 3 41 37 Left 0
SYMATTR Value 1p
SYMATTR InstName C3
SYMBOL e 1568 352 R0
WINDOW 0 42 40 Left 0
WINDOW 3 45 74 Left 0
SYMATTR InstName E5
SYMATTR Value 1
SYMBOL e 1728 304 R0
WINDOW 0 38 39 Left 0
WINDOW 3 42 76 Left 0
SYMATTR InstName E6
SYMATTR Value 2
SYMBOL SpecialFunctions\\sample 1088 368 R0
WINDOW 3 -28 112 Left 0
SYMATTR Value REF=2.5
SYMATTR InstName A4
SYMBOL Ideal_clocked_comparator 1312 656 R90
SYMATTR InstName X11
SYMBOL switch_1 1584 576 R90
SYMATTR InstName X12
SYMBOL switch_1 1504 576 R90
SYMATTR InstName X14
SYMBOL inverter 1600 896 R0
SYMATTR InstName X15
SYMBOL e 2608 352 R0
WINDOW 0 42 40 Left 0
WINDOW 3 45 74 Left 0
SYMATTR InstName E7
SYMATTR Value 1
SYMBOL e 2768 304 R0
WINDOW 0 38 39 Left 0
WINDOW 3 42 76 Left 0
SYMATTR InstName E8
SYMATTR Value 2
SYMBOL SpecialFunctions\\sample 2080 368 R0
WINDOW 3 -28 112 Left 0
SYMATTR Value REF=2.5
SYMATTR InstName A5
SYMBOL Ideal_clocked_comparator 2272 656 R90
SYMATTR InstName X16
SYMBOL switch_1 2544 576 R90
SYMATTR InstName X17
SYMBOL switch_1 2464 576 R90
SYMATTR InstName X19
SYMBOL inverter 2560 896 R0
SYMATTR InstName X20
SYMBOL SpecialFunctions\\sample 3184 368 R0
WINDOW 3 -28 112 Left 0
SYMATTR Value REF=2.5
SYMATTR InstName A6
SYMBOL Ideal_clocked_comparator 3408 656 R90
SYMATTR InstName X21
SYMBOL res 1872 272 R90
WINDOW 0 0 56 VBottom 0
WINDOW 3 32 56 VTop 0
SYMATTR InstName R5
SYMATTR Value 100
SYMBOL cap 1856 336 R0
WINDOW 3 41 37 Left 0
SYMATTR Value 1p
SYMATTR InstName C5
SYMBOL res 2928 272 R90
WINDOW 0 0 56 VBottom 0
WINDOW 3 32 56 VTop 0
SYMATTR InstName R6
SYMATTR Value 100
SYMBOL cap 2928 320 R0
WINDOW 3 41 37 Left 0
SYMATTR Value 1p
SYMATTR InstName C6
SYMBOL voltage 1344 -336 R180
WINDOW 0 24 104 Left 0
WINDOW 3 24 16 Left 0
WINDOW 123 0 0 Left 0
WINDOW 39 0 0 Left 0
SYMATTR InstName V1
SYMATTR Value 200m
TEXT 752 -88 Left 0 !.tran 100n uic
TEXT 848 -144 Left 0 !.options plotwinsize=0
