Version 4
SHEET 1 4120 2204
WIRE 2112 800 2080 800
WIRE 2128 800 2112 800
WIRE 2464 800 2448 800
WIRE 2480 800 2464 800
WIRE 1040 832 880 832
WIRE 1232 832 1104 832
WIRE 880 896 880 832
WIRE 1184 960 1152 960
WIRE 1232 960 1232 832
WIRE 1232 960 1184 960
WIRE 1216 1024 1152 1024
WIRE 880 1040 880 896
WIRE 880 1040 816 1040
WIRE 944 1040 880 1040
WIRE 1664 1056 1552 1056
WIRE 2112 1072 2080 1072
WIRE 2128 1072 2112 1072
WIRE 2464 1072 2448 1072
WIRE 2480 1072 2464 1072
WIRE 464 1088 432 1088
WIRE 512 1088 464 1088
WIRE 880 1088 816 1088
WIRE 1600 1120 1552 1120
WIRE 1440 1184 1440 1168
WIRE 880 1248 880 1088
WIRE 1664 1248 1664 1056
WIRE 1664 1248 880 1248
WIRE 2112 1344 2080 1344
WIRE 2128 1344 2112 1344
WIRE 2464 1344 2448 1344
WIRE 2480 1344 2464 1344
WIRE 2112 1616 2080 1616
WIRE 2128 1616 2112 1616
WIRE 2464 1616 2448 1616
WIRE 2480 1616 2464 1616
WIRE 2256 1872 2224 1872
WIRE 2496 1872 2448 1872
WIRE 2512 1872 2496 1872
FLAG 464 1088 Vin
FLAG 768 960 vdd
FLAG 560 960 p1_1
FLAG 656 960 p2_1
FLAG 512 1040 VCM
FLAG 1456 1008 vdd
FLAG 1440 1184 p1_1
FLAG 1664 1056 Q_1
FLAG 1344 1136 min
FLAG 1344 1040 pos
FLAG 944 944 VCM
FLAG 1184 960 pos
FLAG 880 896 int
FLAG 2224 1872 p1_1
FLAG 2112 800 b0
FLAG 2112 1072 b1
FLAG 2112 1344 b2
FLAG 2112 1616 b3
FLAG 2464 800 b4
FLAG 2464 1072 b5
FLAG 2464 1344 b6
FLAG 2464 1616 b7
FLAG 2336 1808 vdd
FLAG 2496 1872 clk
FLAG 1056 912 vdd
FLAG 1216 1024 min
FLAG 608 960 p1i_1
FLAG 704 960 p2i_1
FLAG 1600 1120 Q_1i
FLAG 544 1184 vdd
FLAG 672 1232 p1_1
FLAG 672 1264 p2_1
FLAG 672 1296 p1_2
FLAG 672 1328 p2_2
FLAG 672 1360 p1_3
FLAG 672 1392 p2_3
FLAG 672 1424 p1_4
FLAG 672 1456 p2_4
FLAG 672 1488 p1i_1
FLAG 672 1520 p2i_1
FLAG 672 1552 p1i_2
FLAG 672 1584 p2i_2
FLAG 672 1616 p1i_3
FLAG 672 1648 p2i_3
FLAG 672 1680 p1i_4
FLAG 672 1712 p2i_4
FLAG 2336 720 vdd
FLAG 2224 800 Q_1i
FLAG 2336 880 p1_1
FLAG 2336 992 vdd
FLAG 2224 1072 Q_1i
FLAG 2336 1152 p1_1
FLAG 2336 1264 vdd
FLAG 2224 1344 Q_1i
FLAG 2336 1424 p1_1
FLAG 2336 1536 vdd
FLAG 2224 1616 Q_1i
FLAG 2336 1696 p1_1
FLAG 1968 720 vdd
FLAG 1856 800 Q_1i
FLAG 1968 880 p1_1
FLAG 1968 992 vdd
FLAG 1856 1072 Q_1i
FLAG 1968 1152 p1_1
FLAG 1968 1264 vdd
FLAG 1856 1344 Q_1i
FLAG 1968 1424 p1_1
FLAG 1968 1536 vdd
FLAG 1856 1616 Q_1i
FLAG 1968 1696 p1_1
SYMBOL cap 1040 848 R270
WINDOW 0 32 32 VTop 2
WINDOW 3 47 82 VBottom 2
SYMATTR InstName C2
SYMATTR Value 400f
SYMBOL amp 992 992 R0
SYMATTR InstName X2
SYMBOL SC_input 576 1120 R0
SYMATTR InstName X3
SYMBOL clk_comparator 1392 1088 R0
SYMATTR InstName X1
SYMBOL clock_gen 592 1360 R0
SYMATTR InstName X4
SYMBOL Inv_6u_3u 2256 1872 R0
SYMATTR InstName X5
SYMBOL dflop 2256 848 R0
SYMATTR InstName X6
SYMBOL dflop 2256 1120 R0
SYMATTR InstName X7
SYMBOL dflop 2256 1392 R0
SYMATTR InstName X8
SYMBOL dflop 2256 1664 R0
SYMATTR InstName X9
SYMBOL dflop 1888 848 R0
SYMATTR InstName X10
SYMBOL dflop 1888 1120 R0
SYMATTR InstName X11
SYMBOL dflop 1888 1392 R0
SYMATTR InstName X12
SYMBOL dflop 1888 1664 R0
SYMATTR InstName X13
TEXT 1280 832 Left 2 ;Kpath = 8 OSR = 64\nFor 1-bit output (serial mode) at Kpath*fs = 1952 MHz\nSNR = 30.36, Neff = 4.75, B = 15.25 MHz\nFor Kpath-bits output (parallel mode) at fs = 244 MHz\nSNR = 30.33, Neff = 4.74, B = 15.23 MHz
TEXT 872 1344 Left 2 !vdd vdd 0 DC 5\nVCM VCM 0 DC 2.5\nVin Vin 0 DC 0 SINE(2.5 2 3MEG)\n.save V(b0) V(b1) V(b2) V(b3) V(clk) V(int) V(Q_1)\n.save V(b4) V(b5) V(b6) V(b7) V(Vin) V(pos) V(min)\n.save V(p1_1)\n.include C5_models.txt\n.options plotwinsize=0\n.ic v(p1_1)=5 v(p2_1)=0\n.tran 0 3.1u 100n UIC
