Version 4
SHEET 1 880 680
WIRE -96 -48 -128 -48
WIRE 160 -32 112 -32
WIRE 160 32 112 32
WIRE -96 48 -128 48
FLAG 16 -80 vdd
FLAG 0 80 clk
FLAG 160 -32 Q
FLAG 160 32 Qi
FLAG -128 -48 Inp
FLAG -128 48 Inm
SYMBOL clk_comparator -48 0 R0
SYMATTR InstName X1
TEXT 48 96 Left 2 !vdd vdd 0 DC 5\nVCLK clk 0 DC 0 PULSE 0  5 0 10p 10p 5n 10n\nVInp Inp 0 DC 0 PULSE 1 2 0 500n\nVInn Inm 0 DC 1.5\n.include C5_models.txt\n.tran 0 500n uic
