Version 4
SHEET 1 924 680
WIRE 208 0 176 0
WIRE 208 64 176 64
FLAG 80 -48 vdd
FLAG -32 -16 Vinp
FLAG -32 80 Vinm
FLAG 208 0 Voutp
FLAG 208 64 Voutm
SYMBOL amp 16 32 R0
SYMATTR InstName X1
TEXT 224 128 Left 2 !vdd vdd 0 DC 5\nVinp Vinp 0 DC 2.5\nVinn Vinm 0 DC 2.5 PULSE 2.45 2.55 10n 100p 100p 5n\nClp voutp 0 400f\nClm voutm 0 400f\n.include C5_models.txt\n*.dc Vinp 2.4 2.6\n.tran 0 25n 5n
