Version 4
SHEET 1 4792 3092
WIRE 1792 320 1584 320
WIRE 2032 320 1856 320
WIRE 1584 384 1584 320
WIRE 2000 448 1872 448
WIRE 2032 448 2032 320
WIRE 2032 448 2000 448
WIRE 1936 512 1872 512
WIRE 1984 512 1936 512
WIRE 2032 512 2032 448
WIRE 2128 512 2032 512
WIRE 1584 528 1584 384
WIRE 1664 528 1584 528
WIRE 2416 528 2336 528
WIRE 2448 528 2416 528
WIRE 2496 528 2448 528
WIRE 1184 544 1136 544
WIRE 1584 544 1584 528
WIRE 1584 544 1488 544
WIRE 1072 592 1008 592
WIRE 1184 592 1072 592
WIRE 1504 592 1488 592
WIRE 2352 592 2336 592
WIRE 1984 608 1984 512
WIRE 2128 608 1984 608
WIRE 2880 640 2848 640
WIRE 2896 640 2880 640
WIRE 1504 688 1504 592
WIRE 2416 688 2416 528
WIRE 2416 688 1504 688
WIRE 2032 816 2032 512
WIRE 2128 816 2032 816
WIRE 1584 832 1584 544
WIRE 1584 832 1488 832
WIRE 2416 832 2336 832
WIRE 2448 832 2416 832
WIRE 2496 832 2448 832
WIRE 1072 880 1072 592
WIRE 1184 880 1072 880
WIRE 1504 880 1488 880
WIRE 2352 896 2336 896
WIRE 1984 912 1984 608
WIRE 2128 912 1984 912
WIRE 2880 912 2848 912
WIRE 2896 912 2880 912
WIRE 1504 1008 1504 880
WIRE 2416 1008 2416 832
WIRE 2416 1008 1504 1008
WIRE 2032 1136 2032 816
WIRE 2128 1136 2032 1136
WIRE 2416 1152 2336 1152
WIRE 2448 1152 2416 1152
WIRE 2496 1152 2448 1152
WIRE 1584 1168 1584 832
WIRE 1584 1168 1488 1168
WIRE 2880 1184 2848 1184
WIRE 2896 1184 2880 1184
WIRE 1072 1216 1072 880
WIRE 1184 1216 1072 1216
WIRE 1504 1216 1488 1216
WIRE 2352 1216 2336 1216
WIRE 1984 1232 1984 912
WIRE 2128 1232 1984 1232
WIRE 2224 1280 2224 1264
WIRE 3040 1312 3008 1312
WIRE 3056 1312 3040 1312
WIRE 1504 1328 1504 1216
WIRE 2416 1328 2416 1152
WIRE 2416 1328 1504 1328
WIRE 3040 1344 3008 1344
WIRE 3056 1344 3040 1344
WIRE 3040 1376 3008 1376
WIRE 3056 1376 3040 1376
WIRE 3040 1408 3008 1408
WIRE 3056 1408 3040 1408
WIRE 3360 1424 3264 1424
WIRE 3392 1424 3360 1424
WIRE 2032 1440 2032 1136
WIRE 2128 1440 2032 1440
WIRE 3040 1440 3008 1440
WIRE 3056 1440 3040 1440
WIRE 896 1456 848 1456
WIRE 2416 1456 2336 1456
WIRE 2448 1456 2416 1456
WIRE 2496 1456 2448 1456
WIRE 2880 1456 2848 1456
WIRE 2896 1456 2880 1456
WIRE 3040 1472 3008 1472
WIRE 3056 1472 3040 1472
WIRE 896 1488 848 1488
WIRE 1584 1488 1584 1168
WIRE 1584 1488 1488 1488
WIRE 3040 1504 3008 1504
WIRE 3056 1504 3040 1504
WIRE 896 1520 848 1520
WIRE 2352 1520 2336 1520
WIRE 1072 1536 1072 1216
WIRE 1184 1536 1072 1536
WIRE 1504 1536 1488 1536
WIRE 1984 1536 1984 1232
WIRE 2128 1536 1984 1536
WIRE 3040 1536 3008 1536
WIRE 3056 1536 3040 1536
WIRE 896 1552 848 1552
WIRE 896 1584 848 1584
WIRE 2224 1584 2224 1568
WIRE 896 1616 848 1616
WIRE 1504 1632 1504 1536
WIRE 2416 1632 2416 1456
WIRE 2416 1632 1504 1632
WIRE 896 1648 848 1648
WIRE 896 1680 848 1680
WIRE 3152 1680 3152 1600
WIRE 896 1712 848 1712
WIRE 2880 1728 2848 1728
WIRE 2896 1728 2880 1728
WIRE 896 1744 848 1744
WIRE 2032 1744 2032 1440
WIRE 2128 1744 2032 1744
WIRE 2416 1760 2336 1760
WIRE 2448 1760 2416 1760
WIRE 2496 1760 2448 1760
WIRE 896 1776 848 1776
WIRE 1584 1776 1584 1488
WIRE 1584 1776 1488 1776
WIRE 896 1808 848 1808
WIRE 1072 1824 1072 1536
WIRE 1184 1824 1072 1824
WIRE 1504 1824 1488 1824
WIRE 2352 1824 2336 1824
WIRE 896 1840 848 1840
WIRE 1984 1840 1984 1536
WIRE 2128 1840 1984 1840
WIRE 896 1872 848 1872
WIRE 2224 1888 2224 1872
WIRE 896 1904 848 1904
WIRE 896 1936 848 1936
WIRE 1504 1936 1504 1824
WIRE 2416 1936 2416 1760
WIRE 2416 1936 1504 1936
WIRE 2880 2000 2848 2000
WIRE 2896 2000 2880 2000
WIRE 2032 2048 2032 1744
WIRE 2128 2048 2032 2048
WIRE 2416 2064 2336 2064
WIRE 2448 2064 2416 2064
WIRE 2496 2064 2448 2064
WIRE 1584 2096 1584 1776
WIRE 1584 2096 1488 2096
WIRE 2352 2128 2336 2128
WIRE 1072 2144 1072 1824
WIRE 1184 2144 1072 2144
WIRE 1504 2144 1488 2144
WIRE 1984 2144 1984 1840
WIRE 2128 2144 1984 2144
WIRE 2224 2192 2224 2176
WIRE 1504 2240 1504 2144
WIRE 2416 2240 2416 2064
WIRE 2416 2240 1504 2240
WIRE 2880 2272 2848 2272
WIRE 2896 2272 2880 2272
WIRE 2032 2352 2032 2048
WIRE 2128 2352 2032 2352
WIRE 2416 2368 2336 2368
WIRE 2448 2368 2416 2368
WIRE 2496 2368 2448 2368
WIRE 1584 2400 1584 2096
WIRE 1584 2400 1488 2400
WIRE 2352 2432 2336 2432
WIRE 1072 2448 1072 2144
WIRE 1184 2448 1072 2448
WIRE 1504 2448 1488 2448
WIRE 1984 2448 1984 2144
WIRE 2128 2448 1984 2448
WIRE 2224 2496 2224 2480
WIRE 1504 2544 1504 2448
WIRE 2416 2544 2416 2368
WIRE 2416 2544 1504 2544
WIRE 2880 2544 2848 2544
WIRE 2896 2544 2880 2544
WIRE 2032 2656 2032 2352
WIRE 2128 2656 2032 2656
WIRE 2416 2672 2336 2672
WIRE 2448 2672 2416 2672
WIRE 2496 2672 2448 2672
WIRE 1584 2704 1584 2400
WIRE 1584 2704 1488 2704
WIRE 2352 2736 2336 2736
WIRE 1072 2752 1072 2448
WIRE 1184 2752 1072 2752
WIRE 1504 2752 1488 2752
WIRE 1984 2752 1984 2448
WIRE 2128 2752 1984 2752
WIRE 2224 2800 2224 2784
WIRE 1504 2864 1504 2752
WIRE 2416 2864 2416 2672
WIRE 2416 2864 1504 2864
FLAG 1440 464 VDD
FLAG 1136 544 VCM
FLAG 2240 480 VDD
FLAG 2448 528 Q_1
FLAG 1440 752 VDD
FLAG 1184 832 VCM
FLAG 2240 784 VDD
FLAG 2448 832 Q_2
FLAG 1440 1088 VDD
FLAG 1184 1168 VCM
FLAG 2240 1104 VDD
FLAG 2448 1152 Q_3
FLAG 1440 1408 VDD
FLAG 1184 1488 VCM
FLAG 2240 1408 VDD
FLAG 1440 1696 VDD
FLAG 1184 1776 VCM
FLAG 2240 1712 VDD
FLAG 2448 1760 Q_5
FLAG 1440 2016 VDD
FLAG 1184 2096 VCM
FLAG 2240 2016 VDD
FLAG 2448 2064 Q_6
FLAG 1440 2320 VDD
FLAG 1184 2400 VCM
FLAG 2240 2320 VDD
FLAG 2448 2368 Q_7
FLAG 1440 2624 VDD
FLAG 1184 2704 VCM
FLAG 2240 2624 VDD
FLAG 2448 2672 Q_8
FLAG 2448 1456 Q_4
FLAG 1664 432 VCM
FLAG 2000 448 pos
FLAG 1584 384 int
FLAG 2224 640 p1_1
FLAG 2224 944 p1_2
FLAG 2224 1280 p1_3
FLAG 2224 1584 p1_4
FLAG 2224 1888 p2_1
FLAG 2224 2192 p2_2
FLAG 2224 2496 p2_3
FLAG 2224 2800 p2_4
FLAG 1232 464 p1_1
FLAG 1328 464 p2_1
FLAG 1232 752 p1_2
FLAG 1328 752 p2_2
FLAG 1232 1088 p1_3
FLAG 1328 1088 p2_3
FLAG 1232 1408 p1_4
FLAG 1328 1408 p2_4
FLAG 1232 1696 p2_1
FLAG 1328 1696 p1_1
FLAG 1232 2016 p2_2
FLAG 1328 2016 p1_2
FLAG 1232 2320 p2_3
FLAG 1328 2320 p1_3
FLAG 1232 2624 p2_4
FLAG 1328 2624 p1_4
FLAG 2880 640 b0
FLAG 2880 912 b1
FLAG 2880 1184 b2
FLAG 2880 1456 b3
FLAG 2880 1728 b4
FLAG 2880 2000 b5
FLAG 2880 2272 b6
FLAG 2880 2544 b7
FLAG 2624 1728 Q_5i
FLAG 2624 2000 Q_6i
FLAG 2624 2272 Q_7i
FLAG 2624 2544 Q_8i
FLAG 2624 640 Q_1i
FLAG 2624 912 Q_2i
FLAG 2624 1184 Q_3i
FLAG 2624 1456 Q_4i
FLAG 2736 1648 vdd
FLAG 2736 1920 vdd
FLAG 2736 2192 vdd
FLAG 2736 2464 vdd
FLAG 2736 560 vdd
FLAG 2736 832 vdd
FLAG 2736 1104 vdd
FLAG 2736 1376 vdd
FLAG 720 1408 vdd
FLAG 896 1456 p1_1
FLAG 896 1488 p2_1
FLAG 896 1520 p1_2
FLAG 896 1552 p2_2
FLAG 896 1584 p1_3
FLAG 896 1616 p2_3
FLAG 896 1648 p1_4
FLAG 896 1680 p2_4
FLAG 896 1712 p1i_1
FLAG 896 1744 p2i_1
FLAG 896 1776 p1i_2
FLAG 896 1808 p2i_2
FLAG 896 1840 p1i_3
FLAG 896 1872 p2i_3
FLAG 896 1904 p1i_4
FLAG 896 1936 p2i_4
FLAG 1936 512 min
FLAG 2352 592 Q_1i
FLAG 2352 896 Q_2i
FLAG 2352 1216 Q_3i
FLAG 1776 400 VDD
FLAG 1280 464 p1i_1
FLAG 1376 464 p2i_1
FLAG 1280 752 p1i_2
FLAG 1376 752 p2i_2
FLAG 1280 1088 p1i_3
FLAG 1376 1088 p2i_3
FLAG 1280 1408 p1i_4
FLAG 1376 1408 p2i_4
FLAG 1280 1696 p2i_1
FLAG 1376 1696 p1i_1
FLAG 1280 2016 p2i_2
FLAG 1376 2016 p1i_2
FLAG 1280 2320 p2i_3
FLAG 1376 2320 p1i_3
FLAG 1280 2624 p2i_4
FLAG 1376 2624 p1i_4
FLAG 2352 1520 Q_4i
FLAG 2352 1824 Q_5i
FLAG 2352 2128 Q_6i
FLAG 2352 2432 Q_7i
FLAG 2352 2736 Q_8i
FLAG 1008 592 Vin
IOPIN 1008 592 In
FLAG 3120 1232 vdd
FLAG 3360 1424 Out
FLAG 3040 1312 b0
FLAG 3040 1344 b1
FLAG 3040 1376 b2
FLAG 3040 1408 b3
FLAG 3040 1440 b4
FLAG 3040 1472 b5
FLAG 3040 1504 b6
FLAG 3040 1536 b7
FLAG 3152 1680 p1_2
FLAG 2736 720 p1_2
FLAG 2736 992 p1_2
FLAG 2736 1264 p1_2
FLAG 2736 1536 p1_2
FLAG 2736 1808 p1_2
FLAG 2736 2080 p1_2
FLAG 2736 2352 p1_2
FLAG 2736 2624 p1_2
SYMBOL cap 1792 336 R270
WINDOW 0 32 32 VTop 2
WINDOW 3 0 32 VBottom 2
SYMATTR InstName C3
SYMATTR Value 800fF
SYMBOL dflop 2656 1776 R0
SYMATTR InstName X36
SYMBOL dflop 2656 2048 R0
SYMATTR InstName X37
SYMBOL dflop 2656 2320 R0
SYMATTR InstName X38
SYMBOL dflop 2656 2592 R0
SYMATTR InstName X39
SYMBOL dflop 2656 688 R0
SYMATTR InstName X40
SYMBOL dflop 2656 960 R0
SYMATTR InstName X41
SYMBOL dflop 2656 1232 R0
SYMATTR InstName X42
SYMBOL dflop 2656 1504 R0
SYMATTR InstName X43
SYMBOL SC_input 1248 2784 R0
SYMATTR InstName X25
SYMBOL SC_input 1248 2480 R0
SYMATTR InstName X26
SYMBOL SC_input 1248 2176 R0
SYMATTR InstName X27
SYMBOL SC_input 1248 1856 R0
SYMATTR InstName X29
SYMBOL SC_input 1248 1568 R0
SYMATTR InstName X30
SYMBOL SC_input 1248 1248 R0
SYMATTR InstName X31
SYMBOL SC_input 1248 912 R0
SYMATTR InstName X32
SYMBOL SC_input 1248 624 R0
SYMATTR InstName X33
SYMBOL clock_gen 768 1584 R0
SYMATTR InstName X44
SYMBOL clk_comparator 2176 560 R0
SYMATTR InstName X17
SYMBOL clk_comparator 2176 864 R0
SYMATTR InstName X18
SYMBOL clk_comparator 2176 1184 R0
SYMATTR InstName X19
SYMBOL clk_comparator 2176 1488 R0
SYMATTR InstName X20
SYMBOL clk_comparator 2176 1792 R0
SYMATTR InstName X21
SYMBOL clk_comparator 2176 2096 R0
SYMATTR InstName X22
SYMBOL clk_comparator 2176 2400 R0
SYMATTR InstName X23
SYMBOL clk_comparator 2176 2704 R0
SYMATTR InstName X24
SYMBOL amp 1712 480 R0
SYMATTR InstName X34
SYMBOL Filter_L_2 3088 1568 R0
SYMATTR InstName X1
TEXT 664 1016 Left 2 !VDD VDD 0 DC 5\nVCM VCM 0 DC 2.5\nVin Vin 0 DC 0 PULSE(0 5 0 1u)\n.include C5_models.txt\n.options plotwinsize=0\n.save v(out) v(vin) v(p1_2)\n.ic v(p1_1)=5 v(p2_1)=0\n.tran 0 1u UIC
