Version 4
SHEET 1 1068 680
FLAG 256 -128 vdd
FLAG 384 -80 p1_1
FLAG 384 -48 p2_1
FLAG 384 -16 p1_2
FLAG 384 16 p2_2
FLAG 384 48 p1_3
FLAG 384 80 p2_3
FLAG 384 112 p1_4
FLAG 384 144 p2_4
FLAG 384 176 p1i_1
FLAG 384 208 p2i_1
FLAG 384 240 p1i_2
FLAG 384 272 p2i_2
FLAG 384 304 p1i_3
FLAG 384 336 p2i_3
FLAG 384 368 p1i_4
FLAG 384 400 p2i_4
SYMBOL clock_gen 304 48 R0
SYMATTR InstName X1
TEXT 528 104 Left 2 !vdd vdd 0 DC 5\n.include C5_models.txt\n.ic v(p1_1)=0 v(p2_1)=5\n.tran 100p 25n
