Version 4
SHEET 1 880 932
WIRE 32 -240 -80 -240
WIRE -288 -208 -416 -208
WIRE -80 -208 -80 -240
WIRE -288 -128 -288 -208
WIRE -224 -128 -288 -128
WIRE 272 -128 192 -128
WIRE -336 -112 -368 -112
WIRE -16 -112 -32 -112
WIRE -224 -96 -288 -96
WIRE 192 -80 192 -128
WIRE 32 0 32 -240
WIRE 48 0 32 0
WIRE 272 16 240 16
WIRE -288 32 -288 -96
WIRE -288 32 -416 32
WIRE 48 32 32 32
WIRE -416 48 -416 32
WIRE -80 48 -80 -16
WIRE -336 128 -336 -112
WIRE -224 128 -336 128
WIRE -336 144 -368 144
WIRE 16 144 -32 144
WIRE -336 160 -336 144
WIRE -224 160 -336 160
WIRE 192 176 192 112
WIRE -16 256 -16 -112
WIRE 48 256 -16 256
WIRE 272 272 240 272
WIRE 32 288 32 32
WIRE 32 288 -80 288
WIRE -288 304 -416 304
WIRE -80 304 -80 288
WIRE -288 384 -288 304
WIRE -224 384 -288 384
WIRE -336 400 -368 400
WIRE 48 400 48 288
WIRE 48 400 -32 400
WIRE -224 416 -288 416
WIRE 192 432 192 368
WIRE 16 512 16 144
WIRE 48 512 16 512
WIRE -288 528 -288 416
WIRE -288 528 -416 528
WIRE 272 528 240 528
WIRE 48 544 16 544
WIRE -416 560 -416 528
WIRE -80 560 -80 496
WIRE -336 640 -336 400
WIRE -224 640 -336 640
WIRE -336 656 -368 656
WIRE 16 656 16 544
WIRE 16 656 -32 656
WIRE -336 672 -336 656
WIRE -224 672 -336 672
FLAG -512 -208 VDD
IOPIN -512 -208 In
FLAG -512 48 VDD
FLAG -560 -128 A1
IOPIN -560 -128 In
FLAG -560 -96 A2
IOPIN -560 -96 In
FLAG -560 128 A3
IOPIN -560 128 In
FLAG -560 160 A4
IOPIN -560 160 In
FLAG 272 -128 b3
IOPIN 272 -128 Out
FLAG 272 16 b2
IOPIN 272 16 Out
FLAG -512 560 VDD
FLAG -560 384 A5
IOPIN -560 384 In
FLAG -560 416 A6
IOPIN -560 416 In
FLAG -560 640 A7
IOPIN -560 640 In
FLAG -560 672 A8
IOPIN -560 672 In
FLAG 272 272 b1
IOPIN 272 272 Out
FLAG 272 528 b0
IOPIN 272 528 Out
FLAG -512 304 VDD
FLAG -416 752 0
FLAG -416 496 0
FLAG -416 240 0
FLAG -416 -16 0
FLAG -176 -208 VDD
FLAG -176 48 VDD
FLAG -176 560 VDD
FLAG -176 304 VDD
FLAG -80 752 0
FLAG -80 240 0
FLAG 96 -80 VDD
FLAG 96 432 VDD
FLAG 96 176 VDD
FLAG 192 624 0
SYMBOL Adderbit -544 -32 R0
SYMATTR InstName X5
SYMBOL Adderbit -544 224 R0
SYMATTR InstName X6
SYMBOL Adderbit -544 480 R0
SYMATTR InstName X7
SYMBOL Adderbit -544 736 R0
SYMATTR InstName X8
SYMBOL Adderbit -208 -32 R0
SYMATTR InstName X1
SYMBOL Adderbit -208 224 R0
SYMATTR InstName X2
SYMBOL Adderbit -208 480 R0
SYMATTR InstName X3
SYMBOL Adderbit -208 736 R0
SYMATTR InstName X4
SYMBOL Adderbit 64 96 R0
SYMATTR InstName X9
SYMBOL Adderbit 64 352 R0
SYMATTR InstName X10
SYMBOL Adderbit 64 608 R0
SYMATTR InstName X11
