Version 4
SHEET 1 880 680
WIRE 48 -112 48 -160
WIRE 416 -112 48 -112
WIRE 48 -80 48 -112
WIRE 416 -80 416 -112
WIRE 224 -64 96 -64
WIRE 368 -64 224 -64
WIRE 416 16 48 16
WIRE 48 48 48 16
WIRE 416 48 416 16
WIRE 0 64 -32 64
WIRE 496 64 464 64
WIRE 48 176 48 144
WIRE 48 176 -32 176
WIRE 128 176 48 176
WIRE 416 176 416 144
WIRE 496 176 416 176
WIRE 48 192 48 176
WIRE 416 192 416 176
WIRE 128 272 128 176
WIRE 128 272 96 272
WIRE 224 272 224 -64
WIRE 224 272 128 272
WIRE 368 272 224 272
WIRE 48 320 48 288
WIRE 416 320 416 288
WIRE 0 0 0 0
FLAG 416 320 0
FLAG 416 240 0
FLAG -32 64 Inp
IOPIN -32 64 In
FLAG 416 -32 vdd
FLAG 496 176 Outp
IOPIN 496 176 Out
FLAG 48 -160 vdd
IOPIN 48 -160 In
FLAG 48 -32 vdd
FLAG 48 320 0
FLAG 48 240 0
FLAG 48 96 vdd
FLAG 416 96 vdd
FLAG 496 64 Inm
IOPIN 496 64 In
FLAG -32 176 Outm
IOPIN -32 176 Out
SYMBOL nmos4 368 192 R0
WINDOW 123 56 100 Left 2
WINDOW 0 60 27 Left 2
SYMATTR Value2 l=600n w=30u
SYMATTR InstName M1
SYMBOL pmos4 368 16 M180
WINDOW 123 56 100 Left 2
WINDOW 0 59 24 Left 2
SYMATTR Value2 l=600n w=30u
SYMATTR InstName M2
SYMBOL pmos4 96 16 R180
WINDOW 123 56 100 Left 2
WINDOW 0 59 24 Left 2
SYMATTR Value2 l=600n w=30u
SYMATTR InstName M3
SYMBOL nmos4 96 192 M0
WINDOW 123 56 100 Left 2
WINDOW 0 60 27 Left 2
SYMATTR Value2 l=600n w=30u
SYMATTR InstName M4
SYMBOL pmos4 0 144 M180
WINDOW 123 56 100 Left 2
WINDOW 0 59 24 Left 2
SYMATTR Value2 l=600n w=300u
SYMATTR InstName M5
SYMBOL pmos4 464 144 R180
WINDOW 123 56 100 Left 2
WINDOW 0 59 24 Left 2
SYMATTR Value2 l=600n w=300u
SYMATTR InstName M6
