Version 4
SHEET 1 1048 680
WIRE 672 32 -16 32
WIRE 704 32 672 32
WIRE 704 160 704 32
WIRE -16 128 -16 32
WIRE 224 128 144 128
WIRE 240 128 224 128
WIRE 496 128 400 128
WIRE 512 128 496 128
WIRE 784 128 672 128
WIRE 800 128 784 128
WIRE 704 160 672 160
WIRE 704 192 672 192
WIRE 224 224 144 224
WIRE 240 224 224 224
WIRE 496 224 400 224
WIRE 512 224 496 224
WIRE 784 224 672 224
WIRE 800 224 784 224
WIRE -16 272 -16 224
WIRE 672 272 -16 272
WIRE 704 272 704 192
WIRE 704 272 672 272
FLAG 64 96 vdd
FLAG 320 96 vdd
FLAG 592 96 vdd
FLAG 880 96 vdd
FLAG 224 128 p1_1
FLAG 496 128 p1_2
FLAG 784 128 p1_3
FLAG 960 128 p1_4
FLAG 144 160 p1i_1
FLAG 400 160 p1i_2
FLAG 672 32 p1i_3
FLAG 960 160 p1i_4
FLAG 144 192 p2i_1
FLAG 400 192 p2i_2
FLAG 672 272 p2i_3
FLAG 960 192 p2i_4
FLAG 224 224 p2_1
FLAG 496 224 p2_2
FLAG 784 224 p2_3
FLAG 960 224 p2_4
SYMBOL delay 64 176 R0
SYMATTR InstName X1
SYMBOL delay 320 176 R0
SYMATTR InstName X2
SYMBOL delay 592 176 R0
SYMATTR InstName X3
SYMBOL delay 880 176 R0
SYMATTR InstName X4
