Version 4
SHEET 1 1624 680
WIRE 992 16 960 16
WIRE 960 48 960 16
WIRE 992 48 960 48
WIRE 1280 48 1216 48
WIRE 96 64 48 64
WIRE 416 64 320 64
WIRE 960 80 960 48
WIRE 960 80 928 80
WIRE 992 80 960 80
WIRE 1280 80 1216 80
WIRE 96 96 48 96
WIRE 416 96 320 96
WIRE 656 112 624 112
WIRE 720 112 704 112
WIRE 992 112 928 112
WIRE 1280 112 1216 112
WIRE 96 128 48 128
WIRE 416 128 320 128
WIRE 720 144 624 144
WIRE 992 144 928 144
WIRE 1280 144 1216 144
WIRE 96 160 48 160
WIRE 416 160 320 160
WIRE 1504 160 1472 160
WIRE 720 176 624 176
WIRE 992 176 928 176
WIRE 1280 176 1216 176
WIRE 96 192 48 192
WIRE 416 192 320 192
WIRE 720 208 624 208
WIRE 992 208 928 208
WIRE 1280 208 1216 208
WIRE 96 224 48 224
WIRE 416 224 320 224
WIRE 1280 240 1216 240
WIRE 96 256 48 256
WIRE 416 256 320 256
WIRE 1280 272 1264 272
WIRE 96 288 48 288
WIRE 416 288 320 288
WIRE 208 384 208 352
WIRE 816 384 816 288
WIRE 816 384 208 384
WIRE 1104 384 1104 288
WIRE 1104 384 816 384
WIRE 208 400 208 384
FLAG 48 64 A1
IOPIN 48 64 In
FLAG 48 96 A2
IOPIN 48 96 In
FLAG 48 128 A3
IOPIN 48 128 In
FLAG 48 160 A4
IOPIN 48 160 In
FLAG 48 192 A5
IOPIN 48 192 In
FLAG 48 224 A6
IOPIN 48 224 In
FLAG 48 256 A7
IOPIN 48 256 In
FLAG 48 288 A8
IOPIN 48 288 In
FLAG 208 400 Clk
IOPIN 208 400 In
FLAG 208 0 vdd
FLAG 480 -16 vdd
FLAG 672 96 vdd
FLAG 992 240 0
FLAG 816 16 vdd
FLAG 1104 -48 vdd
FLAG 1360 320 vdd
FLAG 1392 320 0
FLAG 1376 0 vdd
FLAG 1504 160 Dout
IOPIN 1504 160 Out
FLAG 1264 272 0
SYMBOL 8_bit_register 128 320 R0
SYMATTR InstName X1
SYMBOL inverter 656 112 R0
SYMATTR InstName X3
SYMBOL 8_bit_integrator 1024 256 R0
SYMATTR InstName X4
SYMBOL 4_bit_comb_K_8 752 256 R0
SYMATTR InstName X5
SYMBOL Ideal_8_bit_DAC 1296 304 R0
SYMATTR InstName X6
SYMBOL Adder 448 320 R0
SYMATTR InstName X2
