Version 4
SHEET 1 2740 696
WIRE 1472 -1984 1408 -1984
WIRE 1616 -1984 1472 -1984
WIRE 2160 -1984 1616 -1984
WIRE 1408 -1920 1408 -1984
WIRE 2160 -1904 2160 -1984
WIRE 480 -1824 400 -1824
WIRE 512 -1824 480 -1824
WIRE 960 -1824 880 -1824
WIRE 992 -1824 960 -1824
WIRE 400 -1792 400 -1824
WIRE 880 -1792 880 -1824
WIRE 1408 -1776 1408 -1840
WIRE 2160 -1776 2160 -1824
WIRE 1936 -1728 1872 -1728
WIRE 2000 -1728 1936 -1728
WIRE 2160 -1728 2160 -1776
WIRE 2160 -1728 2080 -1728
WIRE 1616 -1712 1616 -1984
WIRE 1872 -1680 1872 -1728
WIRE 2160 -1680 2160 -1728
WIRE 400 -1648 400 -1712
WIRE 880 -1648 880 -1712
WIRE 960 -1600 880 -1600
WIRE 992 -1600 960 -1600
WIRE 880 -1568 880 -1600
WIRE 1616 -1552 1616 -1712
WIRE 2160 -1552 2160 -1600
WIRE 1872 -1520 1872 -1552
WIRE 1584 -1488 1584 -1648
WIRE 880 -1424 880 -1488
WIRE 1616 -1392 1616 -1552
WIRE 960 -1376 880 -1376
WIRE 992 -1376 960 -1376
WIRE 1872 -1360 1872 -1392
WIRE 880 -1344 880 -1376
WIRE 1584 -1328 1584 -1488
WIRE 1616 -1232 1616 -1392
WIRE 880 -1200 880 -1264
WIRE 1872 -1200 1872 -1232
WIRE 960 -1168 880 -1168
WIRE 992 -1168 960 -1168
WIRE 1584 -1168 1584 -1328
WIRE 880 -1136 880 -1168
WIRE 1616 -1072 1616 -1232
WIRE 1872 -1040 1872 -1072
WIRE 1584 -1008 1584 -1168
WIRE 880 -992 880 -1056
WIRE 960 -944 880 -944
WIRE 992 -944 960 -944
WIRE 880 -912 880 -944
WIRE 1616 -912 1616 -1072
WIRE 1872 -880 1872 -912
WIRE 1584 -848 1584 -1008
WIRE 1584 -784 1584 -848
WIRE 880 -768 880 -832
WIRE 1872 -720 1872 -752
WIRE 1872 -608 1872 -640
FLAG 1872 -608 0
FLAG 1584 -784 0
FLAG 1760 -816 VDD
FLAG 1760 -976 VDD
FLAG 1760 -1136 VDD
FLAG 1760 -1296 VDD
FLAG 1760 -1456 VDD
FLAG 1536 -1504 B4
FLAG 1536 -1344 B3
FLAG 1536 -1184 B2
FLAG 1536 -1024 B1
FLAG 1536 -864 B0
FLAG 880 -1648 0
FLAG 960 -1824 B4
FLAG 880 -1424 0
FLAG 960 -1600 B3
FLAG 880 -1200 0
FLAG 960 -1376 B2
FLAG 880 -992 0
FLAG 960 -1168 B1
FLAG 880 -768 0
FLAG 960 -944 B0
FLAG 1408 -1776 0
FLAG 1472 -1984 VDD
FLAG 1760 -1616 VDD
FLAG 1536 -1664 B5
FLAG 400 -1648 0
FLAG 480 -1824 B5
FLAG 2160 -1552 0
FLAG 1936 -1728 out1
FLAG 2160 -1776 out
SYMBOL ADC_R_2R_bit 1584 -1200 R0
SYMATTR InstName X1
SYMBOL ADC_R_2R_bit 1584 -1040 R0
SYMATTR InstName X2
SYMBOL ADC_R_2R_bit 1584 -1360 R0
SYMATTR InstName X3
SYMBOL ADC_R_2R_bit 1584 -1520 R0
SYMATTR InstName X4
SYMBOL ADC_R_2R_bit 1584 -880 R0
SYMATTR InstName X5
SYMBOL res 1856 -736 R0
SYMATTR InstName R1
SYMATTR Value 10k
SYMBOL voltage 880 -1808 R0
WINDOW 0 36 42 Left 0
WINDOW 3 35 69 Left 0
WINDOW 123 0 0 Left 0
WINDOW 39 0 0 Left 0
SYMATTR InstName Vb4
SYMATTR Value PULSE(1 0 0 200p 200p 159.8n 320n)
SYMBOL voltage 880 -1584 R0
WINDOW 0 36 42 Left 0
WINDOW 3 35 69 Left 0
WINDOW 123 0 0 Left 0
WINDOW 39 0 0 Left 0
SYMATTR InstName Vb5
SYMATTR Value PULSE(1 0 0 200p 200p 79.8n 160n)
SYMBOL voltage 880 -1360 R0
WINDOW 0 36 42 Left 0
WINDOW 3 35 69 Left 0
WINDOW 123 0 0 Left 0
WINDOW 39 0 0 Left 0
SYMATTR InstName Vb6
SYMATTR Value PULSE(1 0 0 200p 200p 39.8n 80n)
SYMBOL voltage 880 -1152 R0
WINDOW 0 36 42 Left 0
WINDOW 3 35 69 Left 0
WINDOW 123 0 0 Left 0
WINDOW 39 0 0 Left 0
SYMATTR InstName Vb7
SYMATTR Value PULSE(1 0 0 200p 200p 19.8n 40n)
SYMBOL voltage 880 -928 R0
WINDOW 0 36 42 Left 0
WINDOW 3 35 69 Left 0
WINDOW 123 0 0 Left 0
WINDOW 39 0 0 Left 0
SYMATTR InstName Vb8
SYMATTR Value PULSE(1 0 0 200p 200p 9.8n 20n)
SYMBOL voltage 1408 -1936 R0
WINDOW 123 0 0 Left 0
WINDOW 39 0 0 Left 0
SYMATTR InstName VDD1
SYMATTR Value 1
SYMBOL ADC_R_2R_bit 1584 -1680 R0
SYMATTR InstName X10
SYMBOL voltage 400 -1808 R0
WINDOW 0 36 42 Left 0
WINDOW 3 35 69 Left 0
WINDOW 123 0 0 Left 0
WINDOW 39 0 0 Left 0
SYMATTR InstName Vb1
SYMATTR Value PULSE(1 0 0 200p 200p 319.8n 640n)
SYMBOL res 2144 -1696 R0
SYMATTR InstName R2
SYMATTR Value 10k
SYMBOL res 2144 -1920 R0
SYMATTR InstName R3
SYMATTR Value 10k
SYMBOL res 1984 -1712 R270
WINDOW 0 32 56 VTop 0
WINDOW 3 0 56 VBottom 0
SYMATTR InstName R4
SYMATTR Value 100k
TEXT 2000 -1480 Left 0 !.tran 0 640n 10n uic
TEXT 1984 -1432 Left 0 !.options plotwinsize=0
