Version 4
SHEET 1 2740 696
WIRE 1408 -2416 1344 -2416
WIRE 1616 -2416 1408 -2416
WIRE 1344 -2352 1344 -2416
WIRE 1616 -2352 1616 -2416
WIRE 1968 -2320 1872 -2320
WIRE 2064 -2320 1968 -2320
WIRE 2064 -2288 2064 -2320
WIRE 1344 -2208 1344 -2272
WIRE 1616 -2192 1616 -2352
WIRE 2064 -2192 2064 -2224
WIRE 1872 -2160 1872 -2192
WIRE 1584 -2128 1584 -2288
WIRE 1616 -2032 1616 -2192
WIRE 1872 -2000 1872 -2032
WIRE 1584 -1968 1584 -2128
WIRE 1616 -1872 1616 -2032
WIRE 1872 -1840 1872 -1872
WIRE 448 -1824 368 -1824
WIRE 480 -1824 448 -1824
WIRE 960 -1824 880 -1824
WIRE 992 -1824 960 -1824
WIRE 1584 -1808 1584 -1968
WIRE 368 -1792 368 -1824
WIRE 880 -1792 880 -1824
WIRE 1616 -1712 1616 -1872
WIRE 1872 -1680 1872 -1712
WIRE 368 -1648 368 -1712
WIRE 880 -1648 880 -1712
WIRE 1584 -1648 1584 -1808
WIRE 448 -1600 368 -1600
WIRE 480 -1600 448 -1600
WIRE 960 -1600 880 -1600
WIRE 992 -1600 960 -1600
WIRE 368 -1568 368 -1600
WIRE 880 -1568 880 -1600
WIRE 1616 -1552 1616 -1712
WIRE 1872 -1520 1872 -1552
WIRE 1584 -1488 1584 -1648
WIRE 368 -1424 368 -1488
WIRE 880 -1424 880 -1488
WIRE 1616 -1392 1616 -1552
WIRE 448 -1376 368 -1376
WIRE 480 -1376 448 -1376
WIRE 960 -1376 880 -1376
WIRE 992 -1376 960 -1376
WIRE 1872 -1360 1872 -1392
WIRE 368 -1344 368 -1376
WIRE 880 -1344 880 -1376
WIRE 1584 -1328 1584 -1488
WIRE 1616 -1232 1616 -1392
WIRE 368 -1200 368 -1264
WIRE 880 -1200 880 -1264
WIRE 1872 -1200 1872 -1232
WIRE 960 -1168 880 -1168
WIRE 992 -1168 960 -1168
WIRE 1584 -1168 1584 -1328
WIRE 448 -1152 368 -1152
WIRE 480 -1152 448 -1152
WIRE 880 -1136 880 -1168
WIRE 368 -1120 368 -1152
WIRE 1616 -1072 1616 -1232
WIRE 1872 -1040 1872 -1072
WIRE 1584 -1008 1584 -1168
WIRE 880 -992 880 -1056
WIRE 368 -976 368 -1040
WIRE 448 -944 368 -944
WIRE 480 -944 448 -944
WIRE 960 -944 880 -944
WIRE 992 -944 960 -944
WIRE 368 -912 368 -944
WIRE 880 -912 880 -944
WIRE 1616 -912 1616 -1072
WIRE 1872 -880 1872 -912
WIRE 1584 -848 1584 -1008
WIRE 1584 -784 1584 -848
WIRE 368 -768 368 -832
WIRE 880 -768 880 -832
WIRE 1872 -720 1872 -752
WIRE 1872 -608 1872 -640
FLAG 1872 -608 0
FLAG 1584 -784 0
FLAG 1760 -816 VDD
FLAG 1760 -976 VDD
FLAG 1760 -1136 VDD
FLAG 1760 -1296 VDD
FLAG 1760 -1456 VDD
FLAG 2064 -2192 0
FLAG 1536 -1504 B4
FLAG 1536 -1344 B3
FLAG 1536 -1184 B2
FLAG 1536 -1024 B1
FLAG 1536 -864 B0
FLAG 368 -1200 0
FLAG 448 -1376 B7
FLAG 368 -976 0
FLAG 448 -1152 B6
FLAG 368 -768 0
FLAG 448 -944 B5
FLAG 880 -1648 0
FLAG 960 -1824 B4
FLAG 880 -1424 0
FLAG 960 -1600 B3
FLAG 880 -1200 0
FLAG 960 -1376 B2
FLAG 880 -992 0
FLAG 960 -1168 B1
FLAG 880 -768 0
FLAG 960 -944 B0
FLAG 1344 -2208 0
FLAG 1408 -2416 VDD
FLAG 1760 -1616 VDD
FLAG 1760 -1776 VDD
FLAG 1760 -1936 VDD
FLAG 1760 -2096 VDD
FLAG 1760 -2256 VDD
FLAG 1536 -2304 B9
FLAG 1536 -2144 B8
FLAG 1536 -1984 B7
FLAG 1536 -1824 B6
FLAG 1536 -1664 B5
FLAG 1968 -2320 Vout
FLAG 368 -1648 0
FLAG 448 -1824 B9
FLAG 368 -1424 0
FLAG 448 -1600 B8
SYMBOL ADC_R_2R_bit 1584 -1200 R0
SYMATTR InstName X1
SYMBOL ADC_R_2R_bit 1584 -1040 R0
SYMATTR InstName X2
SYMBOL ADC_R_2R_bit 1584 -1360 R0
SYMATTR InstName X3
SYMBOL ADC_R_2R_bit 1584 -1520 R0
SYMATTR InstName X4
SYMBOL ADC_R_2R_bit 1584 -880 R0
SYMATTR InstName X5
SYMBOL res 1856 -736 R0
SYMATTR InstName R1
SYMATTR Value 10k
SYMBOL cap 2048 -2288 R0
SYMATTR InstName C1
SYMATTR Value 10p
SYMBOL voltage 368 -1360 R0
WINDOW 0 36 42 Left 0
WINDOW 3 35 69 Left 0
WINDOW 123 0 0 Left 0
WINDOW 39 0 0 Left 0
SYMATTR InstName Vb1
SYMATTR Value 0
SYMBOL voltage 368 -1136 R0
WINDOW 0 36 42 Left 0
WINDOW 3 35 69 Left 0
WINDOW 123 0 0 Left 0
WINDOW 39 0 0 Left 0
SYMATTR InstName Vb2
SYMATTR Value 1.5
SYMBOL voltage 368 -928 R0
WINDOW 0 36 42 Left 0
WINDOW 3 35 69 Left 0
WINDOW 123 0 0 Left 0
WINDOW 39 0 0 Left 0
SYMATTR InstName Vb3
SYMATTR Value 0
SYMBOL voltage 880 -1808 R0
WINDOW 0 36 42 Left 0
WINDOW 3 35 69 Left 0
WINDOW 123 0 0 Left 0
WINDOW 39 0 0 Left 0
SYMATTR InstName Vb4
SYMATTR Value 0
SYMBOL voltage 880 -1584 R0
WINDOW 0 36 42 Left 0
WINDOW 3 35 69 Left 0
WINDOW 123 0 0 Left 0
WINDOW 39 0 0 Left 0
SYMATTR InstName Vb5
SYMATTR Value 0
SYMBOL voltage 880 -1360 R0
WINDOW 0 36 42 Left 0
WINDOW 3 35 69 Left 0
WINDOW 123 0 0 Left 0
WINDOW 39 0 0 Left 0
SYMATTR InstName Vb6
SYMATTR Value 0
SYMBOL voltage 880 -1152 R0
WINDOW 0 36 42 Left 0
WINDOW 3 35 69 Left 0
WINDOW 123 0 0 Left 0
WINDOW 39 0 0 Left 0
SYMATTR InstName Vb7
SYMATTR Value 0
SYMBOL voltage 880 -928 R0
WINDOW 0 36 42 Left 0
WINDOW 3 35 69 Left 0
WINDOW 123 0 0 Left 0
WINDOW 39 0 0 Left 0
SYMATTR InstName Vb8
SYMATTR Value 0
SYMBOL voltage 1344 -2368 R0
WINDOW 123 0 0 Left 0
WINDOW 39 0 0 Left 0
SYMATTR InstName VDD1
SYMATTR Value 1
SYMBOL ADC_R_2R_bit 1584 -2000 R0
SYMATTR InstName X6
SYMBOL ADC_R_2R_bit 1584 -1840 R0
SYMATTR InstName X7
SYMBOL ADC_R_2R_bit 1584 -2160 R0
SYMATTR InstName X8
SYMBOL ADC_R_2R_bit 1584 -2320 R0
SYMATTR InstName X9
SYMBOL ADC_R_2R_bit 1584 -1680 R0
SYMATTR InstName X10
SYMBOL voltage 368 -1808 R0
WINDOW 0 36 42 Left 0
WINDOW 3 35 69 Left 0
WINDOW 123 0 0 Left 0
WINDOW 39 0 0 Left 0
SYMATTR InstName Vb9
SYMATTR Value pulse 1 0 0 200p 200p 1000n 2000n
SYMBOL voltage 368 -1584 R0
WINDOW 0 36 42 Left 0
WINDOW 3 35 69 Left 0
WINDOW 123 0 0 Left 0
WINDOW 39 0 0 Left 0
SYMATTR InstName Vb10
SYMATTR Value 0
TEXT 1120 -2136 Left 0 !.tran 3u uic
TEXT 1112 -2104 Left 0 !.options plotwinsize=0
