Version 4
SHEET 1 2412 680
WIRE 1104 -336 1104 -368
WIRE 1104 -320 1104 -336
WIRE 1376 -272 1376 -304
WIRE 1632 -272 1632 -304
WIRE 1328 -256 1296 -256
WIRE 1584 -256 1328 -256
WIRE 1376 -128 1376 -176
WIRE 1424 -128 1376 -128
WIRE 1632 -128 1632 -176
WIRE 1632 -128 1424 -128
WIRE 1744 -128 1632 -128
WIRE 1808 -128 1744 -128
WIRE 1376 -112 1376 -128
WIRE 1296 -96 1264 -96
WIRE 1328 -96 1296 -96
WIRE 1424 -64 1424 -128
WIRE 1424 -64 1376 -64
WIRE 1632 -32 1632 -128
WIRE 1376 48 1376 -16
WIRE 1584 48 1376 48
WIRE 1376 64 1376 48
WIRE 1632 80 1632 64
WIRE 1328 144 1296 144
WIRE 1376 176 1376 160
FLAG 1104 -240 0
FLAG 1104 -336 VDD
FLAG 1376 176 0
FLAG 1376 -304 VDD
FLAG 1376 -224 VDD
FLAG 800 -240 VDD
FLAG 800 112 0
FLAG 944 -176 Vbias1
FLAG 944 -144 Vhigh
FLAG 944 -112 Vbias2
FLAG 944 -16 Vbias3
FLAG 944 -80 Vpcas
FLAG 944 -48 Vncas
FLAG 944 48 Vbias4
FLAG 944 16 Vlow
FLAG 1376 112 0
FLAG 1296 144 Vbias4
FLAG 1296 -256 Vbias1
FLAG 1632 80 0
FLAG 1632 16 0
FLAG 1808 -128 out
FLAG 1744 -64 0
FLAG 1264 -16 0
FLAG 1296 -96 in
FLAG 1632 -304 VDD
FLAG 1632 -224 VDD
SYMBOL voltage 1104 -336 R0
WINDOW 123 0 0 Left 2
WINDOW 39 0 0 Left 2
SYMATTR InstName VDD
SYMATTR Value 1
SYMBOL pmos4 1328 -176 M180
WINDOW 123 58 102 Left 2
WINDOW 0 56 16 Left 2
SYMATTR Value2 l=100n w=5u
SYMATTR InstName MR1
SYMATTR Value P_50n
SYMBOL Fig_20_47 800 -64 R0
SYMATTR InstName U1
SYMBOL nmos4 1328 64 R0
WINDOW 123 56 100 Left 2
SYMATTR Value2 l=100n w=2.5u
SYMATTR InstName MR3
SYMATTR Value N_50n
SYMBOL pmos4 1328 -16 M180
WINDOW 123 58 102 Left 2
WINDOW 0 56 16 Left 2
SYMATTR Value2 l=100n w=5u
SYMATTR InstName M1
SYMATTR Value P_50n
SYMBOL nmos4 1584 -32 R0
WINDOW 123 56 100 Left 2
SYMATTR Value2 l=100n w=2.5u
SYMATTR InstName M2
SYMATTR Value N_50n
SYMBOL cap 1728 -128 R0
WINDOW 0 49 33 Left 2
WINDOW 3 52 59 Left 2
SYMATTR InstName Cload
SYMATTR Value 10p
SYMBOL voltage 1264 -112 R0
WINDOW 0 -79 21 Left 2
WINDOW 3 -102 47 Left 2
WINDOW 123 -92 74 Left 2
WINDOW 39 0 0 Left 2
SYMATTR InstName Vin
SYMATTR Value 500m
SYMATTR Value2 AC 1
SYMBOL pmos4 1584 -176 M180
WINDOW 123 58 102 Left 2
WINDOW 0 56 16 Left 2
SYMATTR Value2 l=100n w=5u
SYMATTR InstName MRL
SYMATTR Value P_50n
TEXT 776 192 Left 2 !.include cmosedu_models.txt
TEXT 832 152 Left 2 !.ac dec 100 100k 1G
