Version 4
SHEET 1 2412 680
WIRE 1104 -336 1104 -368
WIRE 1104 -320 1104 -336
WIRE 1376 -288 1376 -304
WIRE 1632 -272 1632 -304
WIRE 1840 -272 1840 -304
WIRE 1584 -256 1568 -256
WIRE 1792 -256 1584 -256
WIRE 1376 -160 1376 -208
WIRE 1472 -160 1376 -160
WIRE 1840 -160 1840 -176
WIRE 1840 -160 1552 -160
WIRE 1888 -160 1840 -160
WIRE 1840 -144 1840 -160
WIRE 1888 -144 1888 -160
WIRE 2016 -144 1888 -144
WIRE 2080 -144 2016 -144
WIRE 1376 -128 1376 -160
WIRE 1424 -128 1376 -128
WIRE 1632 -128 1632 -176
WIRE 1792 -128 1632 -128
WIRE 1376 -112 1376 -128
WIRE 1296 -96 1264 -96
WIRE 1328 -96 1296 -96
WIRE 1888 -96 1888 -144
WIRE 1888 -96 1840 -96
WIRE 1424 -64 1424 -128
WIRE 1424 -64 1376 -64
WIRE 1632 -32 1632 -128
WIRE 1376 48 1376 -16
WIRE 1584 48 1376 48
WIRE 1376 64 1376 48
WIRE 1632 80 1632 64
WIRE 1328 144 1296 144
WIRE 1376 176 1376 160
FLAG 1104 -240 0
FLAG 1104 -336 VDD
FLAG 1376 176 0
FLAG 800 -240 VDD
FLAG 800 112 0
FLAG 944 -176 Vbias1
FLAG 944 -144 Vhigh
FLAG 944 -112 Vbias2
FLAG 944 -16 Vbias3
FLAG 944 -80 Vpcas
FLAG 944 -48 Vncas
FLAG 944 48 Vbias4
FLAG 944 16 Vlow
FLAG 1376 112 0
FLAG 1296 144 Vbias4
FLAG 1568 -256 Vbias1
FLAG 1632 80 0
FLAG 1632 16 0
FLAG 2080 -144 out
FLAG 2016 -80 0
FLAG 1264 -16 0
FLAG 1296 -96 in
FLAG 1632 -304 VDD
FLAG 1632 -224 VDD
FLAG 1840 -304 VDD
FLAG 1840 -224 VDD
FLAG 1840 -48 0
FLAG 1376 -304 VDD
SYMBOL voltage 1104 -336 R0
WINDOW 123 0 0 Left 2
WINDOW 39 0 0 Left 2
SYMATTR InstName VDD
SYMATTR Value 1
SYMBOL Fig_20_47 800 -64 R0
SYMATTR InstName U1
SYMBOL nmos4 1328 64 R0
WINDOW 123 56 100 Left 2
SYMATTR Value2 l=100n w=2.5u
SYMATTR InstName MR3
SYMATTR Value N_50n
SYMBOL pmos4 1328 -16 M180
WINDOW 123 58 102 Left 2
WINDOW 0 56 16 Left 2
SYMATTR Value2 l=100n w=5u
SYMATTR InstName M1
SYMATTR Value P_50n
SYMBOL nmos4 1584 -32 R0
WINDOW 123 56 100 Left 2
SYMATTR Value2 l=100n w=2.5u
SYMATTR InstName M2
SYMATTR Value N_50n
SYMBOL cap 2000 -144 R0
WINDOW 0 49 33 Left 2
WINDOW 3 52 59 Left 2
SYMATTR InstName Cload
SYMATTR Value 10p
SYMBOL voltage 1264 -112 R0
WINDOW 0 -79 21 Left 2
WINDOW 3 -102 47 Left 2
WINDOW 123 -92 74 Left 2
WINDOW 39 0 0 Left 2
SYMATTR InstName Vin
SYMATTR Value 600m
SYMATTR Value2 AC 1
SYMBOL pmos4 1584 -176 M180
WINDOW 123 58 102 Left 2
WINDOW 0 56 16 Left 2
SYMATTR Value2 l=100n w=5u
SYMATTR InstName MRL
SYMATTR Value P_50n
SYMBOL pmos4 1792 -48 M180
WINDOW 123 77 -9 Left 2
WINDOW 0 46 26 Left 2
SYMATTR Value2 l=100n w=5u m=4
SYMATTR InstName MSF
SYMATTR Value P_50n
SYMBOL pmos4 1792 -176 M180
WINDOW 123 58 102 Left 2
WINDOW 0 56 16 Left 2
SYMATTR Value2 l=100n w=5u m=4
SYMATTR InstName MSL
SYMATTR Value P_50n
SYMBOL res 1360 -304 R0
SYMATTR InstName R1
SYMATTR Value 1k
SYMBOL res 1568 -176 R90
WINDOW 0 0 56 VBottom 2
WINDOW 3 32 56 VTop 2
SYMATTR InstName R2
SYMATTR Value 9k
TEXT 776 192 Left 2 !.include cmosedu_models.txt
TEXT 832 152 Left 2 !.ac dec 100 100k 1G
