Version 4
SHEET 1 2412 680
WIRE 1712 -464 1712 -480
WIRE 1664 -448 1632 -448
WIRE 896 -384 896 -432
WIRE 1040 -384 1040 -432
WIRE 1712 -336 1712 -368
WIRE 1664 -320 1632 -320
WIRE 1472 -192 1248 -192
WIRE 1712 -192 1712 -240
WIRE 1712 -192 1472 -192
WIRE 1872 -192 1712 -192
WIRE 1936 -192 1872 -192
WIRE 1712 -160 1712 -192
WIRE 1248 -112 1248 -192
WIRE 1664 -80 1632 -80
WIRE 1472 -48 1472 -192
WIRE 1200 -32 1152 -32
WIRE 1712 -16 1712 -64
WIRE 1248 64 1248 -16
WIRE 1472 64 1472 16
WIRE 1472 64 1248 64
WIRE 1584 64 1472 64
WIRE 1664 64 1584 64
WIRE 1472 96 1472 64
WIRE 1712 96 1712 80
WIRE 1472 208 1472 176
FLAG 896 -304 0
FLAG 896 -432 VDD
FLAG 800 -240 VDD
FLAG 800 112 0
FLAG 944 -176 Vbias1
FLAG 944 -144 Vhigh
FLAG 944 -112 Vbias2
FLAG 944 -16 Vbias3
FLAG 944 -80 Vpcas
FLAG 944 -48 Vncas
FLAG 944 48 Vbias4
FLAG 944 16 Vlow
FLAG 1712 96 0
FLAG 1712 32 0
FLAG 1712 -480 VDD
FLAG 1712 -416 VDD
FLAG 1712 -112 0
FLAG 1712 -288 VDD
FLAG 1872 -192 out
FLAG 1632 -448 Vbias1
FLAG 1632 -320 Vbias2
FLAG 1632 -80 Vbias3
FLAG 1472 208 0
FLAG 1248 -64 0
FLAG 1152 -32 reset
FLAG 1040 -304 0
FLAG 1040 -432 reset
FLAG 1936 -128 0
FLAG 1584 64 in
SYMBOL voltage 896 -400 R0
WINDOW 123 0 0 Left 2
WINDOW 39 0 0 Left 2
SYMATTR InstName VDD
SYMATTR Value 1
SYMBOL Fig_20_47 800 -64 R0
SYMATTR InstName U1
SYMBOL nmos4 1664 -16 R0
WINDOW 123 56 100 Left 2
SYMATTR Value2 l=100n w=2.5u
SYMATTR InstName M1
SYMATTR Value N_50n
SYMBOL pmos4 1664 -368 M180
WINDOW 123 58 102 Left 2
WINDOW 0 56 16 Left 2
SYMATTR Value2 l=100n w=5u
SYMATTR InstName M4
SYMATTR Value P_50n
SYMBOL nmos4 1664 -160 R0
WINDOW 123 56 100 Left 2
SYMATTR Value2 l=100n w=2.5u
SYMATTR InstName M2
SYMATTR Value N_50n
SYMBOL pmos4 1664 -240 M180
WINDOW 123 58 102 Left 2
WINDOW 0 56 16 Left 2
SYMATTR Value2 l=100n w=5u
SYMATTR InstName M3
SYMATTR Value P_50n
SYMBOL current 1472 96 M0
WINDOW 0 54 62 Left 2
WINDOW 3 42 22 Left 2
WINDOW 123 0 0 Left 2
WINDOW 39 0 0 Left 2
SYMATTR InstName I1
SYMATTR Value 10p
SYMBOL cap 1488 16 R180
WINDOW 0 24 64 Left 2
WINDOW 3 24 8 Left 2
SYMATTR InstName CF
SYMATTR Value 10f
SYMBOL nmos4 1200 -112 R0
WINDOW 123 56 100 Left 2
SYMATTR Value2 l=50n w=500n
SYMATTR InstName M5
SYMATTR Value N_50n
SYMBOL voltage 1040 -400 R0
WINDOW 123 0 0 Left 2
WINDOW 39 0 0 Left 2
SYMATTR InstName Vreset
SYMATTR Value PULSE(1 0 5u 1n )
SYMBOL cap 1920 -192 R0
WINDOW 0 34 9 Left 2
WINDOW 3 40 50 Left 2
SYMATTR InstName Cload
SYMATTR Value 10p
TEXT 776 192 Left 2 !.include cmosedu_models.txt
TEXT 832 152 Left 2 !.tran 30u
TEXT 1048 136 Left 2 !.options plotwinsize=0
