Version 4
SHEET 1 2412 680
WIRE 1040 -352 1040 -384
WIRE 1040 -336 1040 -352
WIRE 1376 -304 1376 -368
WIRE 1328 -288 1296 -288
WIRE 1648 -176 1648 -192
WIRE 2064 -176 2064 -208
WIRE 1376 -160 1376 -208
WIRE 1600 -160 1376 -160
WIRE 1968 -160 1936 -160
WIRE 2016 -160 1968 -160
WIRE 1376 -64 1376 -160
WIRE 2064 -48 2064 -80
WIRE 2208 -48 2064 -48
WIRE 2256 -48 2208 -48
WIRE 2064 -16 2064 -48
WIRE 1280 16 1248 16
WIRE 1328 16 1280 16
WIRE 1648 16 1648 -80
WIRE 1712 16 1648 16
WIRE 1776 16 1712 16
WIRE 2016 64 1936 64
WIRE 1376 80 1376 32
WIRE 1648 80 1648 16
WIRE 1648 80 1376 80
WIRE 1376 96 1376 80
WIRE 1648 96 1648 80
WIRE 2064 96 2064 80
WIRE 1328 176 1248 176
WIRE 1600 176 1328 176
WIRE 1376 208 1376 192
WIRE 1648 208 1648 192
FLAG 1040 -256 0
FLAG 1040 -352 VDD
FLAG 1376 208 0
FLAG 1376 -368 VDD
FLAG 1376 -256 VDD
FLAG 800 -240 VDD
FLAG 800 112 0
FLAG 944 -176 Vbias1
FLAG 944 -144 Vhigh
FLAG 944 -112 Vbias2
FLAG 944 -16 Vbias3
FLAG 944 -80 Vpcas
FLAG 944 -48 Vncas
FLAG 944 48 Vbias4
FLAG 944 16 Vlow
FLAG 1376 144 0
FLAG 1248 176 Vbias4
FLAG 1296 -288 Vbias1
FLAG 1648 -192 VDD
FLAG 1648 -128 VDD
FLAG 1648 208 0
FLAG 1648 144 0
FLAG 1776 16 out
FLAG 1712 80 0
FLAG 1248 96 0
FLAG 1280 16 in
FLAG 2064 96 0
FLAG 2064 -128 0
FLAG 2064 32 0
FLAG 1936 64 Vbias4
FLAG 1968 -160 in
FLAG 2064 -208 VDD
FLAG 2256 -48 out_sf
FLAG 2208 16 0
FLAG 1376 -16 0
SYMBOL voltage 1040 -352 R0
WINDOW 123 0 0 Left 2
WINDOW 39 0 0 Left 2
SYMATTR InstName VDD
SYMATTR Value 1
SYMBOL pmos4 1328 -208 M180
WINDOW 123 58 102 Left 2
WINDOW 0 56 16 Left 2
SYMATTR Value2 l=100n w=5u
SYMATTR InstName MR3
SYMATTR Value P_50n
SYMBOL Fig_20_47 800 -64 R0
SYMATTR InstName U1
SYMBOL nmos4 1328 -64 R0
WINDOW 123 56 100 Left 2
SYMATTR Value2 l=100n w=2.5u
SYMATTR InstName M1
SYMATTR Value N_50n
SYMBOL nmos4 1328 96 R0
WINDOW 123 56 100 Left 2
SYMATTR Value2 l=100n w=2.5u
SYMATTR InstName MR1
SYMATTR Value N_50n
SYMBOL pmos4 1600 -80 M180
WINDOW 123 58 102 Left 2
WINDOW 0 56 16 Left 2
SYMATTR Value2 l=100n w=5u
SYMATTR InstName M2
SYMATTR Value P_50n
SYMBOL nmos4 1600 96 R0
WINDOW 123 56 100 Left 2
SYMATTR Value2 l=100n w=2.5u
SYMATTR InstName MRL
SYMATTR Value N_50n
SYMBOL cap 1696 16 R0
WINDOW 0 49 33 Left 2
WINDOW 3 52 59 Left 2
SYMATTR InstName Cload
SYMATTR Value 10p
SYMBOL voltage 1248 0 R0
WINDOW 0 -79 21 Left 2
WINDOW 3 -102 47 Left 2
WINDOW 123 -92 74 Left 2
WINDOW 39 0 0 Left 2
SYMATTR InstName Vin
SYMATTR Value 500m
SYMATTR Value2 AC 1
SYMBOL nmos4 2016 -80 M180
WINDOW 123 56 100 Left 2
SYMATTR Value2 l=100n w=2.5u
SYMATTR InstName M4
SYMATTR Value N_50n
SYMBOL nmos4 2016 -16 R0
WINDOW 123 56 100 Left 2
SYMATTR Value2 l=100n w=2.5u
SYMATTR InstName M3
SYMATTR Value N_50n
SYMBOL cap 2192 -48 R0
WINDOW 0 49 33 Left 2
WINDOW 3 52 59 Left 2
SYMATTR InstName Cload1
SYMATTR Value 10p
TEXT 776 192 Left 2 !.include cmosedu_models.txt
TEXT 832 152 Left 2 !.ac dec 100 100k 1G
