Version 4
SHEET 1 1224 688
WIRE 448 0 320 0
WIRE 672 0 448 0
WIRE 848 0 672 0
WIRE 320 32 320 0
WIRE 848 32 848 0
WIRE 448 112 448 0
WIRE 320 128 320 112
WIRE 400 128 320 128
WIRE 672 160 672 0
WIRE 672 160 448 160
WIRE 672 192 672 160
WIRE 448 304 448 208
WIRE 672 304 672 272
WIRE 672 304 448 304
FLAG 848 32 0
SYMBOL voltage 320 16 R0
WINDOW 0 -93 54 Left 2
WINDOW 3 -93 82 Left 2
WINDOW 123 0 0 Left 2
WINDOW 39 0 0 Left 2
SYMATTR InstName VSG
SYMATTR Value 1.15
SYMBOL voltage 672 176 R0
WINDOW 123 0 0 Left 2
WINDOW 39 0 0 Left 2
WINDOW 0 38 54 Left 2
WINDOW 3 24 104 Invisible 2
SYMATTR InstName VSD
SYMATTR Value 0
SYMBOL pmos4 400 208 M180
WINDOW 123 56 100 Left 2
SYMATTR Value2 l=2u w=30u
SYMATTR InstName M1
SYMATTR Value P_1u
TEXT 384 336 Left 2 !.dc VSD 0 5
TEXT 384 360 Left 2 !.include cmosedu_models.txt
TEXT 368 -32 Left 2 ;Plot Is(M1) and 1/d(Is(M1)) (to get ro)
