Version 4
SHEET 1 1136 680
WIRE 592 -32 576 -32
WIRE 672 -32 592 -32
WIRE 736 -32 672 -32
WIRE 288 -16 288 -48
WIRE 288 0 288 -16
WIRE 528 64 528 48
WIRE 592 64 592 -32
WIRE 592 64 528 64
WIRE 528 96 528 64
WIRE 528 224 528 176
WIRE 784 224 784 48
FLAG 288 80 0
FLAG 288 -16 VDD
FLAG 528 0 VDD
FLAG 784 0 VDD
FLAG 528 -48 VDD
FLAG 784 -48 VDD
FLAG 528 224 0
FLAG 784 224 0
FLAG 672 -32 VD1
SYMBOL pmos4 736 48 M180
WINDOW 0 64 16 Left 2
WINDOW 123 56 100 Left 2
SYMATTR InstName M2
SYMATTR Value2 l=100n w=5u
SYMATTR Value P_50n
SYMBOL pmos4 576 48 R180
WINDOW 0 63 16 Left 2
WINDOW 123 56 100 Left 2
SYMATTR InstName M1
SYMATTR Value2 l=100n w=5u
SYMATTR Value P_50n
SYMBOL voltage 288 -16 R0
SYMATTR InstName VDD
SYMATTR Value 1
SYMBOL res 512 80 R0
SYMATTR InstName R1
SYMATTR Value 65k TC1=0.002
TEXT 288 288 Left 2 !.include cmosedu_models.txt
TEXT 608 -96 Left 2 ;Plot Is(M1)
TEXT 288 240 Left 2 !.tran 1
TEXT 288 264 Left 2 !.step temp list 0 27 100
