Version 4
SHEET 1 2012 680
WIRE 1200 -576 1152 -576
WIRE 1248 -464 1248 -496
WIRE 1200 -448 1152 -448
WIRE 1712 -368 1712 -400
WIRE 1248 -352 1248 -368
WIRE 1440 -352 1248 -352
WIRE 1664 -352 1440 -352
WIRE 1248 -336 1248 -352
WIRE 1200 -320 1152 -320
WIRE 1440 -240 1440 -352
WIRE 1712 -240 1712 -272
WIRE 1856 -240 1712 -240
WIRE 448 -208 448 -240
WIRE 1712 -208 1712 -240
WIRE 448 -192 448 -208
WIRE 1392 -160 1152 -160
WIRE 1248 -128 1248 -240
WIRE 1440 -128 1440 -144
WIRE 1440 -128 1248 -128
WIRE 1664 -128 1440 -128
WIRE 1200 -48 1152 -48
WIRE 1712 0 1712 -112
WIRE 1248 64 1248 -32
WIRE 1200 144 1152 144
WIRE 1248 192 1248 160
FLAG 448 -112 0
FLAG 448 -208 VDD
FLAG 1248 112 0
FLAG 1248 192 0
FLAG 1248 -80 0
FLAG 1248 -592 VDD
FLAG 1248 -544 VDD
FLAG 1248 -416 VDD
FLAG 1152 -576 Vbias1
FLAG 1152 -448 Vbias2
FLAG 1152 -48 Vbias3
FLAG 1152 144 Vbias4
FLAG 800 -240 VDD
FLAG 800 112 0
FLAG 944 -176 Vbias1
FLAG 944 -144 Vhigh
FLAG 944 -112 Vbias2
FLAG 944 -16 Vbias3
FLAG 944 -80 Vpcas
FLAG 944 -48 Vncas
FLAG 944 48 Vbias4
FLAG 944 16 Vlow
FLAG 1248 -288 VDD
FLAG 1440 -192 0
FLAG 1712 -320 VDD
FLAG 1712 -160 0
FLAG 1152 -320 Vpcas
FLAG 1152 -160 Vncas
FLAG 1712 -400 VDD
FLAG 1712 0 0
FLAG 1856 -240 Out
SYMBOL voltage 448 -208 R0
WINDOW 123 0 0 Left 2
WINDOW 39 0 0 Left 2
SYMATTR InstName VDD
SYMATTR Value 1
SYMBOL nmos4 1200 64 R0
WINDOW 123 56 100 Left 2
SYMATTR Value2 l=100n w=2.5u
SYMATTR InstName M2
SYMATTR Value N_50n
SYMBOL nmos4 1200 -128 R0
WINDOW 123 56 100 Left 2
SYMATTR Value2 l=100n w=2.5u
SYMATTR InstName MN
SYMATTR Value N_50n
SYMBOL pmos4 1200 -496 M180
WINDOW 123 58 102 Left 2
WINDOW 0 56 16 Left 2
SYMATTR Value2 l=100n w=5u
SYMATTR InstName M6b
SYMATTR Value P_50n
SYMBOL pmos4 1200 -368 M180
WINDOW 123 58 102 Left 2
WINDOW 0 56 16 Left 2
SYMATTR Value2 l=100n w=5u
SYMATTR InstName MP
SYMATTR Value P_50n
SYMBOL Fig_20_47 800 -64 R0
SYMATTR InstName U1
SYMBOL pmos4 1200 -240 M180
WINDOW 123 58 102 Left 2
WINDOW 0 56 16 Left 2
SYMATTR Value2 l=100n w=2.5u
SYMATTR InstName MP1
SYMATTR Value P_50n
SYMBOL nmos4 1392 -240 R0
WINDOW 123 56 100 Left 2
SYMATTR Value2 l=100n w=1.25u
SYMATTR InstName MN1
SYMATTR Value N_50n
SYMBOL pmos4 1664 -272 M180
WINDOW 123 58 102 Left 2
WINDOW 0 56 16 Left 2
SYMATTR Value2 l=100n w=50u
SYMATTR InstName MOP
SYMATTR Value P_50n
SYMBOL nmos4 1664 -208 R0
WINDOW 123 56 100 Left 2
SYMATTR Value2 l=100n w=25u
SYMATTR InstName MON
SYMATTR Value N_50n
TEXT 416 104 Left 2 !.include cmosedu_models.txt
TEXT 488 -296 Left 2 ;Plot Id(MN) and Is(MOP)
TEXT 416 -48 Left 2 !.tran 1
