Version 4
SHEET 1 956 680
WIRE -528 -256 -800 -256
WIRE -32 -256 -528 -256
WIRE 48 -256 -32 -256
WIRE -32 -192 -32 -256
WIRE -800 -176 -800 -256
WIRE -528 -176 -528 -256
WIRE -80 -176 -128 -176
WIRE 48 -144 48 -256
WIRE 48 -144 -32 -144
WIRE -192 -112 -384 -112
WIRE -128 -112 -128 -176
WIRE -128 -112 -192 -112
WIRE -800 -80 -800 -96
WIRE -32 -64 -32 -96
WIRE -192 -48 -384 -48
WIRE -80 -48 -192 -48
WIRE 48 -16 48 -144
WIRE 48 -16 -32 -16
WIRE -32 64 -32 32
WIRE -32 96 -32 64
WIRE -32 96 -112 96
WIRE -32 112 -32 96
WIRE -112 128 -112 96
WIRE -80 128 -112 128
WIRE -80 176 -112 176
WIRE -528 192 -528 176
WIRE -112 208 -112 176
WIRE -32 208 -32 192
WIRE -32 208 -112 208
WIRE -32 304 -32 288
FLAG -800 -80 0
FLAG -528 192 0
FLAG -32 304 0
FLAG -32 64 out
FLAG -192 -112 Vbias1
FLAG -192 -48 Vbias2
SYMBOL pmos4 -80 -96 M180
WINDOW 123 56 60 Left 2
WINDOW 3 56 85 Left 2
SYMATTR Value2 l=100n w=5u
SYMATTR Value P_50n
SYMATTR InstName M4
SYMBOL Fig_20_47 -528 0 R0
SYMATTR InstName X1
SYMBOL voltage -800 -192 R0
WINDOW 123 0 0 Left 2
WINDOW 39 0 0 Left 2
WINDOW 3 39 78 Left 2
SYMATTR Value 1
SYMATTR InstName VDD
SYMBOL pmos4 -80 32 M180
WINDOW 123 56 60 Left 2
WINDOW 3 54 86 Left 2
SYMATTR Value2 l=100n w=5u
SYMATTR Value P_50n
SYMATTR InstName M3
SYMBOL g2 -32 208 M180
SYMATTR InstName G1
SYMATTR Value 1
SYMBOL voltage -32 192 R0
WINDOW 123 0 0 Left 2
WINDOW 39 0 0 Left 2
WINDOW 3 39 78 Left 2
WINDOW 0 40 46 Left 2
SYMATTR Value 750m
SYMATTR InstName Vo
TEXT -808 264 Left 2 !.noise V(out,0) VDD dec 100 1 10MEG
TEXT -800 232 Left 2 !.lib cmosedu_models.txt
TEXT -360 224 Left 2 ;Noiseless 1 ohm resistor\nto measure noise current.
