Version 4
SHEET 1 956 680
WIRE -528 -256 -800 -256
WIRE -32 -256 -528 -256
WIRE 48 -256 -32 -256
WIRE -800 -176 -800 -256
WIRE -528 -176 -528 -256
WIRE -32 -128 -32 -256
WIRE -192 -112 -384 -112
WIRE -80 -112 -192 -112
WIRE -800 -80 -800 -96
WIRE 48 -80 48 -256
WIRE 48 -80 -32 -80
WIRE -32 -16 -32 -32
WIRE -32 16 -32 -16
WIRE -32 16 -112 16
WIRE -32 32 -32 16
WIRE -112 48 -112 16
WIRE -80 48 -112 48
WIRE -80 96 -112 96
WIRE -112 144 -112 96
WIRE -32 144 -32 112
WIRE -32 144 -112 144
WIRE -32 176 -32 144
WIRE -528 192 -528 176
WIRE -32 304 -32 256
FLAG -800 -80 0
FLAG -528 192 0
FLAG -32 304 0
FLAG -32 -16 out
FLAG -192 -112 Vbias1
SYMBOL pmos4 -80 -32 M180
WINDOW 123 56 60 Left 2
WINDOW 3 56 85 Left 2
SYMATTR Value2 l=100n w=5u
SYMATTR Value P_50n
SYMATTR InstName M4
SYMBOL Fig_20_47 -528 0 R0
SYMATTR InstName X1
SYMBOL voltage -800 -192 R0
WINDOW 123 0 0 Left 2
WINDOW 39 0 0 Left 2
WINDOW 3 39 78 Left 2
SYMATTR Value 1
SYMATTR InstName VDD
SYMBOL g2 -32 128 M180
SYMATTR InstName G1
SYMATTR Value 1
SYMBOL voltage -32 160 R0
WINDOW 123 0 0 Left 2
WINDOW 39 0 0 Left 2
WINDOW 3 39 78 Left 2
WINDOW 0 42 34 Left 2
SYMATTR Value 750mV
SYMATTR InstName Vo
TEXT -832 240 Left 2 !.noise V(out,0) VDD dec 100 1 10MEG
TEXT -824 208 Left 2 !.lib cmosedu_models.txt
TEXT -360 200 Left 2 ;Noiseless 1 ohm resistor\nto measure noise current.
